Circuit: * C:\Users\91880\Desktop\DTU\Programming\NGSPICE Netlists\Draft1.asc


Date: Sat Nov 28 00:53:28 2020
Total elapsed time: 0.050 seconds.

tnom = 27
temp = 27
method = trap
totiter = 0
traniter = 0
tranpoints = 0
accept = 0
rejected = 0
matrix size = 4
fillins = 0
solver = Normal

