Circuit: * C:\Users\91880\Desktop\DTU\Programming\NGSPICE Netlists\Low Pass Filter.asc


Date: Sat Nov 14 23:41:46 2020
Total elapsed time: 0.038 seconds.

tnom = 27
temp = 27
method = trap
totiter = 0
traniter = 0
tranpoints = 0
accept = 0
rejected = 0
matrix size = 3
fillins = 0
solver = Normal

