Circuit: * C:\Users\91880\Desktop\DTU\Programming\NGSPICE Netlists\Parallel RLC Bandpass Filter.asc


Date: Sun Nov 29 15:05:22 2020
Total elapsed time: 0.053 seconds.

tnom = 27
temp = 27
method = trap
totiter = 0
traniter = 0
tranpoints = 0
accept = 0
rejected = 0
matrix size = 3
fillins = 1
solver = Normal

