Circuit: * C:\Users\91880\Desktop\DTU\Programming\NGSPICE Netlists\RC_Active Cascaded Bandpass Filter.asc

Instance "m:u1:6": Length shorter than recommended for a level 2 MOSFET.
Instance "m:u1:5": Length shorter than recommended for a level 2 MOSFET.
Direct Newton iteration for .op point succeeded.

Date: Fri Nov 27 21:59:11 2020
Total elapsed time: 0.070 seconds.

tnom = 27
temp = 27
method = trap
totiter = 28
traniter = 0
tranpoints = 0
accept = 0
rejected = 0
matrix size = 45
fillins = 21
solver = Normal
Matrix Compiler1:     197 opcodes
Matrix Compiler2: 4.26 KB object code size
