Circuit: * C:\Users\91880\Desktop\DTU\Programming\NGSPICE Netlists\RC_Active Bandpass Filter.asc

Instance "m:u1:6": Length shorter than recommended for a level 2 MOSFET.
Instance "m:u1:5": Length shorter than recommended for a level 2 MOSFET.
Direct Newton iteration for .op point succeeded.

Date: Sat Nov 28 03:44:58 2020
Total elapsed time: 0.079 seconds.

tnom = 27
temp = 27
method = trap
totiter = 21
traniter = 0
tranpoints = 0
accept = 0
rejected = 0
matrix size = 43
fillins = 13
solver = Normal
Matrix Compiler1:     162 opcodes
Matrix Compiler2: 3.96 KB object code size
