Circuit: * C:\Users\91880\Desktop\DTU\Programming\NGSPICE Netlists\RC_Active Lowpass Filter.asc

Instance "m:u1:6": Length shorter than recommended for a level 2 MOSFET.
Instance "m:u1:5": Length shorter than recommended for a level 2 MOSFET.
Direct Newton iteration for .op point succeeded.

Date: Sat Nov 28 01:49:50 2020
Total elapsed time: 0.069 seconds.

tnom = 27
temp = 27
method = trap
totiter = 22
traniter = 0
tranpoints = 0
accept = 0
rejected = 0
matrix size = 42
fillins = 13
solver = Normal
Matrix Compiler1:     159 opcodes
Matrix Compiler2: 3.89 KB object code size
