Circuit: * C:\Users\91880\Desktop\DTU\Programming\NGSPICE Netlists\RC_Highpass Cascaded Filter.asc


Date: Sat Nov 28 01:07:41 2020
Total elapsed time: 0.042 seconds.

tnom = 27
temp = 27
method = trap
totiter = 0
traniter = 0
tranpoints = 0
accept = 0
rejected = 0
matrix size = 5
fillins = 0
solver = Normal

