Circuit: * C:\Users\91880\Desktop\DTU\Programming\NGSPICE Netlists\RC_highpass Filter.asc


Date: Fri Nov 27 22:48:36 2020
Total elapsed time: 0.033 seconds.

tnom = 27
temp = 27
method = trap
totiter = 0
traniter = 0
tranpoints = 0
accept = 0
rejected = 0
matrix size = 3
fillins = 0
solver = Normal

