Circuit: * C:\Users\91880\Desktop\DTU\Programming\NGSPICE Netlists\RC_lowpass Cascaded Filter.asc


Date: Sat Nov 28 04:08:56 2020
Total elapsed time: 0.055 seconds.

tnom = 27
temp = 27
method = trap
totiter = 0
traniter = 0
tranpoints = 0
accept = 0
rejected = 0
matrix size = 5
fillins = 0
solver = Normal

