Circuit: * C:\Users\91880\Desktop\DTU\Programming\NGSPICE Netlists\RL_lowpass Filter.asc


Date: Tue Nov 24 19:57:48 2020
Total elapsed time: 0.025 seconds.

tnom = 27
temp = 27
method = trap
totiter = 0
traniter = 0
tranpoints = 0
accept = 0
rejected = 0
matrix size = 3
fillins = 1
solver = Normal

