Circuit: * C:\Users\91880\Desktop\DTU\Programming\NGSPICE Netlists\Sreies RLC Bandpass Filter.asc


Date: Fri Nov 27 23:01:18 2020
Total elapsed time: 0.050 seconds.

tnom = 27
temp = 27
method = trap
totiter = 0
traniter = 0
tranpoints = 0
accept = 0
rejected = 0
matrix size = 4
fillins = 1
solver = Normal

