Circuit: * C:\Users\ishan\OneDrive\Desktop\project\lic\PWM Based Motor Speed Control Simulation Using LTSpice\PWM Based Motor Speed Control Simulation Using LTSpice\BTTD.asc

WARNING: Node CLOCK is floating.
WARNING: Node RST is floating.

WARNING: Less than two connections to node O1.  This node is used by A4.
WARNING: Less than two connections to node O2.  This node is used by A5.
WARNING: Less than two connections to node O3.  This node is used by A8.
WARNING: Less than two connections to node O5.  This node is used by A10.
WARNING: Less than two connections to node O6.  This node is used by A11.
WARNING: Less than two connections to node O7.  This node is used by A12.
WARNING: Less than two connections to node O4.  This node is used by A13.
WARNING: Less than two connections to node O8.  This node is used by VDD1.
WARNING: Less than two connections to node RST.  This node is used by A14.
WARNING: Less than two connections to node N004.  This node is used by A14.
Per .tran options, skipping operating point for transient analysis.
Ignoring empty pin current: Ix(x1:d)
Ignoring empty pin current: Ix(x1:clk)
Ignoring empty pin current: Ix(x2:d)
Ignoring empty pin current: Ix(x2:clk)
Ignoring empty pin current: Ix(x3:d)
Ignoring empty pin current: Ix(x3:clk)

Date: Sun May 30 19:45:29 2021
Total elapsed time: 0.375 seconds.

tnom = 27
temp = 27
method = modified trap
totiter = 2084
traniter = 2084
tranpoints = 1042
accept = 1042
rejected = 0
matrix size = 51
fillins = 3
solver = Normal
Matrix Compiler1: 1.51 KB object code size  0.3/0.2/[0.1]
Matrix Compiler2: 2.68 KB object code size  0.1/0.3/[0.1]

