Circuit: * C:\Users\91880\Desktop\lic_project-20210707T144135Z-001\lic_project\final_final.asc

WARNING: Node X1:CLOCK is floating.
WARNING: Node X1:RST is floating.

WARNING: Less than two connections to node CLOCK.  This node is used by VCLOCK1.
WARNING: Less than two connections to node RST.  This node is used by VCLOCK2.
WARNING: Less than two connections to node X1:RST.  This node is used by A:X1:14.
WARNING: Less than two connections to node X1:N004.  This node is used by A:X1:14.
Per .tran options, skipping operating point for transient analysis.

Date: Wed Jul 07 21:04:55 2021
Total elapsed time: 0.221 seconds.

tnom = 27
temp = 27
method = modified trap
totiter = 19729
traniter = 19729
tranpoints = 7752
accept = 6308
rejected = 1444
matrix size = 86
fillins = 1
solver = Normal
Matrix Compiler1: 2.96 KB object code size  0.5/0.3/[0.2]
Matrix Compiler2: 5.03 KB object code size  0.3/0.7/[0.2]

