Circuit: * C:\Users\91880\Desktop\lic_project\Motor_Control.asc

WARNING: Less than two connections to node N011.  This node is used by A14.
Per .tran options, skipping operating point for transient analysis.
Ignoring empty pin current: Ix(x1:d)
Ignoring empty pin current: Ix(x1:clk)
Ignoring empty pin current: Ix(x2:d)
Ignoring empty pin current: Ix(x2:clk)
Ignoring empty pin current: Ix(x3:d)
Ignoring empty pin current: Ix(x3:clk)

Date: Wed Jul 07 21:11:15 2021
Total elapsed time: 0.306 seconds.

tnom = 27
temp = 27
method = modified trap
totiter = 26030
traniter = 26030
tranpoints = 10216
accept = 8305
rejected = 1911
matrix size = 83
fillins = 1
solver = Normal
Thread vector: 2.9/5.1[1] 1.7/1.1[2] 0.6/0.9[1] 0.1/1.4[1]  2592/500
Matrix Compiler1: 2.71 KB object code size  0.6/0.4/[0.2]
Matrix Compiler2: 4.97 KB object code size  0.3/1.0/[0.3]

